Version 4
SHEET 1 880 680
WIRE -448 32 -448 16
WIRE -448 32 -880 32
WIRE -448 64 -448 32
WIRE -304 64 -448 64
WIRE 208 64 -304 64
WIRE -880 112 -880 32
WIRE -448 128 -448 64
WIRE -304 144 -304 64
WIRE -96 192 -192 192
WIRE 208 192 208 64
WIRE 208 192 160 192
WIRE 400 192 272 192
WIRE 448 192 432 192
WIRE 544 192 528 192
WIRE -880 224 -880 192
WIRE -1072 240 -1072 192
WIRE 224 256 160 256
WIRE 272 256 272 192
WIRE 272 256 224 256
WIRE -448 272 -448 208
WIRE -304 272 -304 208
WIRE -304 272 -448 272
WIRE -192 272 -192 192
WIRE -192 272 -304 272
WIRE 272 272 272 256
WIRE 480 272 480 64
WIRE 400 288 400 272
WIRE 432 288 432 192
WIRE 432 288 400 288
WIRE 448 288 432 288
WIRE 544 304 544 192
WIRE 544 304 512 304
WIRE -96 320 -144 320
WIRE 304 320 160 320
WIRE 336 320 304 320
WIRE 448 320 416 320
WIRE 304 352 304 320
WIRE 336 352 304 352
WIRE 416 352 416 320
WIRE -448 368 -448 272
WIRE -144 368 -144 320
WIRE 224 416 224 256
WIRE 480 416 480 336
WIRE 480 416 224 416
WIRE -448 480 -448 448
FLAG -880 224 0
FLAG -448 480 0
FLAG -1072 112 vBat
FLAG -1072 240 0
FLAG -144 368 0
FLAG 336 320 vOut
FLAG 272 272 0
FLAG 480 64 vBat
SYMBOL voltage -880 96 R0
WINDOW 123 0 0 Left 2
WINDOW 39 0 0 Left 2
SYMATTR InstName V1
SYMATTR Value PWL(0 0 1000m 12)
SYMBOL res -464 112 R0
SYMATTR InstName R2
SYMATTR Value .01
SYMATTR SpiceLine tol=.1 pwr=24
SYMBOL res -464 352 R0
SYMATTR InstName R3
SYMATTR Value 4
SYMATTR SpiceLine tol=1 pwr=100
SYMBOL voltage -1072 96 R0
WINDOW 123 0 0 Left 2
WINDOW 39 0 0 Left 2
SYMATTR InstName V2
SYMATTR Value 12
SYMBOL Opamps\\LT1787 32 224 R0
SYMATTR InstName U2
SYMBOL res 544 176 R90
WINDOW 0 0 56 VBottom 2
WINDOW 3 32 56 VTop 2
SYMATTR InstName R1
SYMATTR Value 10000
SYMBOL res 416 288 R180
WINDOW 0 36 76 Left 2
WINDOW 3 36 40 Left 2
SYMATTR InstName R4
SYMATTR Value 1000
SYMBOL res 432 336 R90
WINDOW 0 0 56 VBottom 2
WINDOW 3 32 56 VTop 2
SYMATTR InstName R5
SYMATTR Value 900
SYMBOL Opamps\\LT1006 480 240 R0
SYMATTR InstName U1
SYMBOL cap -320 144 R0
SYMATTR InstName C1
SYMATTR Value .01µ
TEXT -818 504 Left 2 !.tran 0 2000m 0 .1
